!- Windows Line endings 

Version,
    23.1;                     !- Version Identifier

SimulationControl,
    Yes,                      !- Do Zone Sizing Calculation
    Yes,                      !- Do System Sizing Calculation
    Yes,                      !- Do Plant Sizing Calculation
    No,                       !- Run Simulation for Sizing Periods
    Yes,                      !- Run Simulation for Weather File Run Periods
    No,                       !- Do HVAC Sizing Simulation for Sizing Periods
    2;                        !- Maximum Number of HVAC Sizing Simulation Passes

Building,
    Building_1,               !- Name
    0,                        !- North Axis
    City,                     !- Terrain
    0.04,                     !- Loads Convergence Tolerance Value
    0.4,                      !- Temperature Convergence Tolerance Value
    FullExterior,             !- Solar Distribution
    25,                       !- Maximum Number of Warmup Days
    6;                        !- Minimum Number of Warmup Days

SHADOWCALCULATION,
    PolygonClipping,          !- Shading Calculation Method
    Periodic,                 !- Shading Calculation Update Frequency Method
    30,                       !- Shading Calculation Update Frequency
    15000,                    !- Maximum Figures in Shadow Overlap Calculations
    SutherlandHodgman,        !- Polygon Clipping Algorithm
    512,                      !- Pixel Counting Resolution
    SimpleSkyDiffuseModeling,    !- Sky Diffuse Modeling Algorithm
    No,                       !- Output External Shading Calculation Results
    No,                       !- Disable SelfShading Within Shading Zone Groups
    No;                       !- Disable SelfShading From Shading Zone Groups to Other Zones

Timestep,
    4;                        !- Number of Timesteps per Hour

Site:Location,
    CHN Design_Conditions,    !- Name
    30,                       !- Latitude
    114,                      !- Longitude
    8,                        !- Time Zone
    12;                       !- Elevation

SIZINGPERIOD:DESIGNDAY,
    Ann Htg 99.6% Condns DB,    !- Name
    1,                        !- Month
    21,                       !- Day of Month
    WinterDesignDay,          !- Day Type
    -10,                      !- Maximum DryBulb Temperature
    0,                        !- Daily DryBulb Temperature Range
    DefaultMultipliers,       !- DryBulb Temperature Range Modifier Type
    ,                         !- DryBulb Temperature Range Modifier Day Schedule Name
    Wetbulb,                  !- Humidity Condition Type
    -4.8,                     !- Wetbulb or DewPoint at Maximum DryBulb
    ,                         !- Humidity Condition Day Schedule Name
    ,                         !- Humidity Ratio at Maximum DryBulb
    ,                         !- Enthalpy at Maximum DryBulb
    ,                         !- Daily WetBulb Temperature Range
    101181,                   !- Barometric Pressure
    1,                        !- Wind Speed
    340,                      !- Wind Direction
    No,                       !- Rain Indicator
    No,                       !- Snow Indicator
    No,                       !- Daylight Saving Time Indicator
    ASHRAEClearSky,           !- Solar Model Indicator
    ,                         !- Beam Solar Day Schedule Name
    ,                         !- Diffuse Solar Day Schedule Name
    0,                        !- ASHRAE Clear Sky Optical Depth for Beam Irradiance taub
    0,                        !- ASHRAE Clear Sky Optical Depth for Diffuse Irradiance taud
    0,                        !- Sky Clearness
    ,                         !- Maximum Number Warmup Days
    FullResetAtBeginEnvironment;    !- Begin Environment Reset Mode

SIZINGPERIOD:DESIGNDAY,
    Ann Clg .4% Condns DB=>MWB,    !- Name
    7,                        !- Month
    21,                       !- Day of Month
    SummerDesignDay,          !- Day Type
    40,                       !- Maximum DryBulb Temperature
    6.6,                      !- Daily DryBulb Temperature Range
    DefaultMultipliers,       !- DryBulb Temperature Range Modifier Type
    ,                         !- DryBulb Temperature Range Modifier Day Schedule Name
    Wetbulb,                  !- Humidity Condition Type
    27.1,                     !- Wetbulb or DewPoint at Maximum DryBulb
    ,                         !- Humidity Condition Day Schedule Name
    ,                         !- Humidity Ratio at Maximum DryBulb
    ,                         !- Enthalpy at Maximum DryBulb
    ,                         !- Daily WetBulb Temperature Range
    101181,                   !- Barometric Pressure
    3.5,                      !- Wind Speed
    220,                      !- Wind Direction
    No,                       !- Rain Indicator
    No,                       !- Snow Indicator
    No,                       !- Daylight Saving Time Indicator
    ASHRAETau,                !- Solar Model Indicator
    ,                         !- Beam Solar Day Schedule Name
    ,                         !- Diffuse Solar Day Schedule Name
    0.781,                    !- ASHRAE Clear Sky Optical Depth for Beam Irradiance taub
    1.413,                    !- ASHRAE Clear Sky Optical Depth for Diffuse Irradiance taud
    0,                        !- Sky Clearness
    ,                         !- Maximum Number Warmup Days
    FullResetAtBeginEnvironment;    !- Begin Environment Reset Mode

RunPeriod,
    Run_Period_1,             !- Name
    1,                        !- Begin Month
    1,                        !- Begin Day of Month
    ,                         !- Begin Year
    12,                       !- End Month
    31,                       !- End Day of Month
    ,                         !- End Year
    Monday,                   !- Day of Week for Start Day
    No,                       !- Use Weather File Holidays and Special Days
    Yes,                      !- Use Weather File Daylight Saving Period
    No,                       !- Apply Weekend Holiday Rule
    Yes,                      !- Use Weather File Rain Indicators
    Yes;                      !- Use Weather File Snow Indicators

SCHEDULETYPELIMITS,
    Temperature,              !- Name
    -60,                      !- Lower Limit Value
    200,                      !- Upper Limit Value
    Continuous,               !- Numeric Type
    temperature;              !- Unit Type

SCHEDULETYPELIMITS,
    Fractional,               !- Name
    0,                        !- Lower Limit Value
    1,                        !- Upper Limit Value
    Continuous,               !- Numeric Type
    dimensionless;            !- Unit Type

SCHEDULETYPELIMITS,
    On/Off,                   !- Name
    0,                        !- Lower Limit Value
    1,                        !- Upper Limit Value
    Discrete,                 !- Numeric Type
    availability;             !- Unit Type

SCHEDULETYPELIMITS,
    Activity,                 !- Name
    0,                        !- Lower Limit Value
    ,                         !- Upper Limit Value
    Continuous,               !- Numeric Type
    dimensionless;            !- Unit Type

SCHEDULE:DAY:HOURLY,
    Schedule_administration_heating_summer_hourly,    !- Name
    Temperature,              !- Schedule Type Limits Name
    -20,                      !- Hour 1
    -20,                      !- Hour 2
    -20,                      !- Hour 3
    -20,                      !- Hour 4
    -20,                      !- Hour 5
    -20,                      !- Hour 6
    -20,                      !- Hour 7
    -20,                      !- Hour 8
    -20,                      !- Hour 9
    -20,                      !- Hour 10
    -20,                      !- Hour 11
    -20,                      !- Hour 12
    -20,                      !- Hour 13
    -20,                      !- Hour 14
    -20,                      !- Hour 15
    -20,                      !- Hour 16
    -20,                      !- Hour 17
    -20,                      !- Hour 18
    -20,                      !- Hour 19
    -20,                      !- Hour 20
    -20,                      !- Hour 21
    -20,                      !- Hour 22
    -20,                      !- Hour 23
    -20;                      !- Hour 24

SCHEDULE:DAY:HOURLY,
    Schedule_administration_heating_winnter_weekday_hourly,    !- Name
    Temperature,              !- Schedule Type Limits Name
    5,                        !- Hour 1
    5,                        !- Hour 2
    5,                        !- Hour 3
    5,                        !- Hour 4
    5,                        !- Hour 5
    5,                        !- Hour 6
    12,                       !- Hour 7
    12,                       !- Hour 8
    18,                       !- Hour 9
    20,                       !- Hour 10
    20,                       !- Hour 11
    20,                       !- Hour 12
    20,                       !- Hour 13
    20,                       !- Hour 14
    20,                       !- Hour 15
    20,                       !- Hour 16
    20,                       !- Hour 17
    20,                       !- Hour 18
    18,                       !- Hour 19
    5,                        !- Hour 20
    5,                        !- Hour 21
    5,                        !- Hour 22
    5,                        !- Hour 23
    5;                        !- Hour 24

SCHEDULE:DAY:HOURLY,
    Schedule_administration_heating_winnter_holiday_hourly,    !- Name
    Temperature,              !- Schedule Type Limits Name
    5,                        !- Hour 1
    5,                        !- Hour 2
    5,                        !- Hour 3
    5,                        !- Hour 4
    5,                        !- Hour 5
    5,                        !- Hour 6
    5,                        !- Hour 7
    5,                        !- Hour 8
    5,                        !- Hour 9
    5,                        !- Hour 10
    5,                        !- Hour 11
    5,                        !- Hour 12
    5,                        !- Hour 13
    5,                        !- Hour 14
    5,                        !- Hour 15
    5,                        !- Hour 16
    5,                        !- Hour 17
    5,                        !- Hour 18
    5,                        !- Hour 19
    5,                        !- Hour 20
    5,                        !- Hour 21
    5,                        !- Hour 22
    5,                        !- Hour 23
    5;                        !- Hour 24

SCHEDULE:DAY:HOURLY,
    Schedule_administration_cooling_winter_hourly,    !- Name
    Temperature,              !- Schedule Type Limits Name
    50,                       !- Hour 1
    50,                       !- Hour 2
    50,                       !- Hour 3
    50,                       !- Hour 4
    50,                       !- Hour 5
    50,                       !- Hour 6
    50,                       !- Hour 7
    50,                       !- Hour 8
    50,                       !- Hour 9
    50,                       !- Hour 10
    50,                       !- Hour 11
    50,                       !- Hour 12
    50,                       !- Hour 13
    50,                       !- Hour 14
    50,                       !- Hour 15
    50,                       !- Hour 16
    50,                       !- Hour 17
    50,                       !- Hour 18
    50,                       !- Hour 19
    50,                       !- Hour 20
    50,                       !- Hour 21
    50,                       !- Hour 22
    50,                       !- Hour 23
    50;                       !- Hour 24

SCHEDULE:DAY:HOURLY,
    Schedule_administration_cooling_summer_weekday_hourly,    !- Name
    Temperature,              !- Schedule Type Limits Name
    50,                       !- Hour 1
    50,                       !- Hour 2
    50,                       !- Hour 3
    50,                       !- Hour 4
    50,                       !- Hour 5
    50,                       !- Hour 6
    50,                       !- Hour 7
    28,                       !- Hour 8
    26,                       !- Hour 9
    26,                       !- Hour 10
    26,                       !- Hour 11
    26,                       !- Hour 12
    26,                       !- Hour 13
    26,                       !- Hour 14
    26,                       !- Hour 15
    26,                       !- Hour 16
    26,                       !- Hour 17
    26,                       !- Hour 18
    50,                       !- Hour 19
    50,                       !- Hour 20
    50,                       !- Hour 21
    50,                       !- Hour 22
    50,                       !- Hour 23
    50;                       !- Hour 24

SCHEDULE:DAY:HOURLY,
    Schedule_administration_cooling_summer_holiday_hourly,    !- Name
    Temperature,              !- Schedule Type Limits Name
    50,                       !- Hour 1
    50,                       !- Hour 2
    50,                       !- Hour 3
    50,                       !- Hour 4
    50,                       !- Hour 5
    50,                       !- Hour 6
    50,                       !- Hour 7
    50,                       !- Hour 8
    50,                       !- Hour 9
    50,                       !- Hour 10
    50,                       !- Hour 11
    50,                       !- Hour 12
    50,                       !- Hour 13
    50,                       !- Hour 14
    50,                       !- Hour 15
    50,                       !- Hour 16
    50,                       !- Hour 17
    50,                       !- Hour 18
    50,                       !- Hour 19
    50,                       !- Hour 20
    50,                       !- Hour 21
    50,                       !- Hour 22
    50,                       !- Hour 23
    50;                       !- Hour 24

SCHEDULE:DAY:HOURLY,
    Schedule_administration_lighting_weekday_hourly,    !- Name
    Fractional,               !- Schedule Type Limits Name
    0.2,                      !- Hour 1
    0.2,                      !- Hour 2
    0.2,                      !- Hour 3
    0.2,                      !- Hour 4
    0.2,                      !- Hour 5
    0.2,                      !- Hour 6
    0.2,                      !- Hour 7
    0.5,                      !- Hour 8
    0.95,                     !- Hour 9
    0.95,                     !- Hour 10
    0.95,                     !- Hour 11
    0.8,                      !- Hour 12
    0.8,                      !- Hour 13
    0.95,                     !- Hour 14
    0.95,                     !- Hour 15
    0.95,                     !- Hour 16
    0.95,                     !- Hour 17
    0.95,                     !- Hour 18
    0.3,                      !- Hour 19
    0.2,                      !- Hour 20
    0.2,                      !- Hour 21
    0.2,                      !- Hour 22
    0.2,                      !- Hour 23
    0.2;                      !- Hour 24

SCHEDULE:DAY:HOURLY,
    Schedule_administration_lighting_holiday_hourly,    !- Name
    Fractional,               !- Schedule Type Limits Name
    0.2,                      !- Hour 1
    0.2,                      !- Hour 2
    0.2,                      !- Hour 3
    0.2,                      !- Hour 4
    0.2,                      !- Hour 5
    0.2,                      !- Hour 6
    0.2,                      !- Hour 7
    0.25,                     !- Hour 8
    0.475,                    !- Hour 9
    0.475,                    !- Hour 10
    0.475,                    !- Hour 11
    0.4,                      !- Hour 12
    0.4,                      !- Hour 13
    0.475,                    !- Hour 14
    0.475,                    !- Hour 15
    0.475,                    !- Hour 16
    0.475,                    !- Hour 17
    0.475,                    !- Hour 18
    0.2,                      !- Hour 19
    0.2,                      !- Hour 20
    0.2,                      !- Hour 21
    0.2,                      !- Hour 22
    0.2,                      !- Hour 23
    0.2;                      !- Hour 24

SCHEDULE:DAY:HOURLY,
    Schedule_administration_equipment_weekday_hourly,    !- Name
    Fractional,               !- Schedule Type Limits Name
    0.2,                      !- Hour 1
    0.2,                      !- Hour 2
    0.2,                      !- Hour 3
    0.2,                      !- Hour 4
    0.2,                      !- Hour 5
    0.2,                      !- Hour 6
    0.2,                      !- Hour 7
    0.5,                      !- Hour 8
    0.95,                     !- Hour 9
    0.95,                     !- Hour 10
    0.95,                     !- Hour 11
    0.5,                      !- Hour 12
    0.5,                      !- Hour 13
    0.95,                     !- Hour 14
    0.95,                     !- Hour 15
    0.95,                     !- Hour 16
    0.95,                     !- Hour 17
    0.3,                      !- Hour 18
    0.2,                      !- Hour 19
    0.2,                      !- Hour 20
    0.2,                      !- Hour 21
    0.2,                      !- Hour 22
    0.2,                      !- Hour 23
    0.2;                      !- Hour 24

SCHEDULE:DAY:HOURLY,
    Schedule_administration_equipment_holiday_hourly,    !- Name
    Fractional,               !- Schedule Type Limits Name
    0.2,                      !- Hour 1
    0.2,                      !- Hour 2
    0.2,                      !- Hour 3
    0.2,                      !- Hour 4
    0.2,                      !- Hour 5
    0.2,                      !- Hour 6
    0.2,                      !- Hour 7
    0.25,                     !- Hour 8
    0.475,                    !- Hour 9
    0.475,                    !- Hour 10
    0.475,                    !- Hour 11
    0.25,                     !- Hour 12
    0.25,                     !- Hour 13
    0.475,                    !- Hour 14
    0.475,                    !- Hour 15
    0.475,                    !- Hour 16
    0.475,                    !- Hour 17
    0.2,                      !- Hour 18
    0.2,                      !- Hour 19
    0.2,                      !- Hour 20
    0.2,                      !- Hour 21
    0.2,                      !- Hour 22
    0.2,                      !- Hour 23
    0.2;                      !- Hour 24

SCHEDULE:DAY:HOURLY,
    Schedule_administration_people_weekday_hourly,    !- Name
    Fractional,               !- Schedule Type Limits Name
    0,                        !- Hour 1
    0,                        !- Hour 2
    0,                        !- Hour 3
    0,                        !- Hour 4
    0,                        !- Hour 5
    0,                        !- Hour 6
    0.1,                      !- Hour 7
    0.5,                      !- Hour 8
    0.95,                     !- Hour 9
    0.95,                     !- Hour 10
    0.95,                     !- Hour 11
    0.8,                      !- Hour 12
    0.8,                      !- Hour 13
    0.95,                     !- Hour 14
    0.95,                     !- Hour 15
    0.95,                     !- Hour 16
    0.95,                     !- Hour 17
    0.3,                      !- Hour 18
    0.1,                      !- Hour 19
    0,                        !- Hour 20
    0,                        !- Hour 21
    0,                        !- Hour 22
    0,                        !- Hour 23
    0;                        !- Hour 24

SCHEDULE:DAY:HOURLY,
    Schedule_administration_people_holiday_hourly,    !- Name
    Fractional,               !- Schedule Type Limits Name
    0,                        !- Hour 1
    0,                        !- Hour 2
    0,                        !- Hour 3
    0,                        !- Hour 4
    0,                        !- Hour 5
    0,                        !- Hour 6
    2.000000e-02,             !- Hour 7
    0.1,                      !- Hour 8
    0.19,                     !- Hour 9
    0.19,                     !- Hour 10
    0.19,                     !- Hour 11
    1.600000e-01,             !- Hour 12
    1.600000e-01,             !- Hour 13
    0.19,                     !- Hour 14
    0.19,                     !- Hour 15
    0.19,                     !- Hour 16
    0.19,                     !- Hour 17
    0.06,                     !- Hour 18
    2.000000e-02,             !- Hour 19
    0,                        !- Hour 20
    0,                        !- Hour 21
    0,                        !- Hour 22
    0,                        !- Hour 23
    0;                        !- Hour 24

SCHEDULE:DAY:HOURLY,
    Schedule_administration_activity_weekday_hourly,    !- Name
    Activity,                 !- Schedule Type Limits Name
    144,                      !- Hour 1
    144,                      !- Hour 2
    144,                      !- Hour 3
    144,                      !- Hour 4
    144,                      !- Hour 5
    144,                      !- Hour 6
    144,                      !- Hour 7
    144,                      !- Hour 8
    144,                      !- Hour 9
    144,                      !- Hour 10
    144,                      !- Hour 11
    144,                      !- Hour 12
    144,                      !- Hour 13
    144,                      !- Hour 14
    144,                      !- Hour 15
    144,                      !- Hour 16
    144,                      !- Hour 17
    144,                      !- Hour 18
    144,                      !- Hour 19
    144,                      !- Hour 20
    144,                      !- Hour 21
    144,                      !- Hour 22
    144,                      !- Hour 23
    144;                      !- Hour 24

SCHEDULE:DAY:HOURLY,
    Schedule_administration_activity_holiday_hourly,    !- Name
    Activity,                 !- Schedule Type Limits Name
    144,                      !- Hour 1
    144,                      !- Hour 2
    144,                      !- Hour 3
    144,                      !- Hour 4
    144,                      !- Hour 5
    144,                      !- Hour 6
    144,                      !- Hour 7
    144,                      !- Hour 8
    144,                      !- Hour 9
    144,                      !- Hour 10
    144,                      !- Hour 11
    144,                      !- Hour 12
    144,                      !- Hour 13
    144,                      !- Hour 14
    144,                      !- Hour 15
    144,                      !- Hour 16
    144,                      !- Hour 17
    144,                      !- Hour 18
    144,                      !- Hour 19
    144,                      !- Hour 20
    144,                      !- Hour 21
    144,                      !- Hour 22
    144,                      !- Hour 23
    144;                      !- Hour 24

SCHEDULE:DAY:HOURLY,
    Schedule_administration_infiltrion_onoff_hourly,    !- Name
    On/Off,                   !- Schedule Type Limits Name
    1,                        !- Hour 1
    1,                        !- Hour 2
    1,                        !- Hour 3
    1,                        !- Hour 4
    1,                        !- Hour 5
    1,                        !- Hour 6
    1,                        !- Hour 7
    1,                        !- Hour 8
    1,                        !- Hour 9
    1,                        !- Hour 10
    1,                        !- Hour 11
    1,                        !- Hour 12
    1,                        !- Hour 13
    1,                        !- Hour 14
    1,                        !- Hour 15
    1,                        !- Hour 16
    1,                        !- Hour 17
    1,                        !- Hour 18
    1,                        !- Hour 19
    1,                        !- Hour 20
    1,                        !- Hour 21
    1,                        !- Hour 22
    1,                        !- Hour 23
    1;                        !- Hour 24

SCHEDULE:DAY:HOURLY,
    Schedule_administration_ventilation_weekday_hourly,    !- Name
    On/Off,                   !- Schedule Type Limits Name
    0,                        !- Hour 1
    0,                        !- Hour 2
    0,                        !- Hour 3
    0,                        !- Hour 4
    0,                        !- Hour 5
    0,                        !- Hour 6
    0,                        !- Hour 7
    1,                        !- Hour 8
    1,                        !- Hour 9
    1,                        !- Hour 10
    1,                        !- Hour 11
    1,                        !- Hour 12
    1,                        !- Hour 13
    1,                        !- Hour 14
    1,                        !- Hour 15
    1,                        !- Hour 16
    1,                        !- Hour 17
    1,                        !- Hour 18
    1,                        !- Hour 19
    0,                        !- Hour 20
    0,                        !- Hour 21
    0,                        !- Hour 22
    0,                        !- Hour 23
    0;                        !- Hour 24

SCHEDULE:DAY:HOURLY,
    Schedule_administration_ventilation_holiday_hourly,    !- Name
    On/Off,                   !- Schedule Type Limits Name
    0,                        !- Hour 1
    0,                        !- Hour 2
    0,                        !- Hour 3
    0,                        !- Hour 4
    0,                        !- Hour 5
    0,                        !- Hour 6
    0,                        !- Hour 7
    0,                        !- Hour 8
    0,                        !- Hour 9
    0,                        !- Hour 10
    0,                        !- Hour 11
    0,                        !- Hour 12
    0,                        !- Hour 13
    0,                        !- Hour 14
    0,                        !- Hour 15
    0,                        !- Hour 16
    0,                        !- Hour 17
    0,                        !- Hour 18
    0,                        !- Hour 19
    0,                        !- Hour 20
    0,                        !- Hour 21
    0,                        !- Hour 22
    0,                        !- Hour 23
    0;                        !- Hour 24

SCHEDULE:DAY:HOURLY,
    Schedule_commerical_heating_summer_hourly,    !- Name
    Temperature,              !- Schedule Type Limits Name
    -20,                      !- Hour 1
    -20,                      !- Hour 2
    -20,                      !- Hour 3
    -20,                      !- Hour 4
    -20,                      !- Hour 5
    -20,                      !- Hour 6
    -20,                      !- Hour 7
    -20,                      !- Hour 8
    -20,                      !- Hour 9
    -20,                      !- Hour 10
    -20,                      !- Hour 11
    -20,                      !- Hour 12
    -20,                      !- Hour 13
    -20,                      !- Hour 14
    -20,                      !- Hour 15
    -20,                      !- Hour 16
    -20,                      !- Hour 17
    -20,                      !- Hour 18
    -20,                      !- Hour 19
    -20,                      !- Hour 20
    -20,                      !- Hour 21
    -20,                      !- Hour 22
    -20,                      !- Hour 23
    -20;                      !- Hour 24

SCHEDULE:DAY:HOURLY,
    Schedule_commerical_heating_winnter_weekday_hourly,    !- Name
    Temperature,              !- Schedule Type Limits Name
    5,                        !- Hour 1
    5,                        !- Hour 2
    5,                        !- Hour 3
    5,                        !- Hour 4
    5,                        !- Hour 5
    5,                        !- Hour 6
    12,                       !- Hour 7
    16,                       !- Hour 8
    18,                       !- Hour 9
    18,                       !- Hour 10
    18,                       !- Hour 11
    18,                       !- Hour 12
    18,                       !- Hour 13
    18,                       !- Hour 14
    18,                       !- Hour 15
    18,                       !- Hour 16
    18,                       !- Hour 17
    18,                       !- Hour 18
    18,                       !- Hour 19
    18,                       !- Hour 20
    12,                       !- Hour 21
    5,                        !- Hour 22
    5,                        !- Hour 23
    5;                        !- Hour 24

SCHEDULE:DAY:HOURLY,
    Schedule_commerical_heating_winnter_holiday_hourly,    !- Name
    Temperature,              !- Schedule Type Limits Name
    5,                        !- Hour 1
    5,                        !- Hour 2
    5,                        !- Hour 3
    5,                        !- Hour 4
    5,                        !- Hour 5
    5,                        !- Hour 6
    12,                       !- Hour 7
    16,                       !- Hour 8
    18,                       !- Hour 9
    18,                       !- Hour 10
    18,                       !- Hour 11
    18,                       !- Hour 12
    18,                       !- Hour 13
    18,                       !- Hour 14
    18,                       !- Hour 15
    18,                       !- Hour 16
    18,                       !- Hour 17
    18,                       !- Hour 18
    18,                       !- Hour 19
    18,                       !- Hour 20
    12,                       !- Hour 21
    5,                        !- Hour 22
    5,                        !- Hour 23
    5;                        !- Hour 24

SCHEDULE:DAY:HOURLY,
    Schedule_commerical_cooling_winter_hourly,    !- Name
    Temperature,              !- Schedule Type Limits Name
    50,                       !- Hour 1
    50,                       !- Hour 2
    50,                       !- Hour 3
    50,                       !- Hour 4